<?xml version="1.0" encoding="UTF-8"?>

<!-- generated on 2021-11-29 17:04:03 by Eclipse SUMO netedit Version v1_10_0+1831-77099b212b6
<configuration xmlns:xsi="http://www.w3.org/2001/XMLSchema-instance" xsi:noNamespaceSchemaLocation="http://sumo.dlr.de/xsd/netconvertConfiguration.xsd">

    <input>
        <sumo-net-file value="/home/levidaily/linux/Repositories/sumo/tests/quickstart/bike-blocked-on-leftturn.net.xml"/>
    </input>

    <output>
        <output-file value="/home/levidaily/linux/Repositories/sumo/tests/quickstart/bike-blocked-on-leftturn.net.xml"/>
    </output>

    <processing>
        <geometry.min-radius.fix.railways value="false"/>
        <geometry.max-grade.fix value="false"/>
        <offset.disable-normalization value="true"/>
        <lefthand value="false"/>
    </processing>

    <junctions>
        <no-turnarounds value="true"/>
        <junctions.corner-detail value="5"/>
        <junctions.limit-turn-speed value="5.5"/>
        <rectangular-lane-cut value="false"/>
    </junctions>

    <pedestrian>
        <walkingareas value="false"/>
    </pedestrian>

    <report>
        <aggregate-warnings value="5"/>
    </report>

</configuration>
-->

<net version="1.9" junctionCornerDetail="5" limitTurnSpeed="5.50" xmlns:xsi="http://www.w3.org/2001/XMLSchema-instance" xsi:noNamespaceSchemaLocation="http://sumo.dlr.de/xsd/net_file.xsd">

    <location netOffset="0.00,0.00" convBoundary="0.00,0.00,200.00,50.00" origBoundary="-10000000000.00,-10000000000.00,10000000000.00,10000000000.00" projParameter="!"/>

    <edge id=":J1_0" function="internal">
        <lane id=":J1_0_0" index="0" speed="6.51" length="9.03" shape="107.20,1.60 104.75,1.95 103.00,3.00 101.95,4.75 101.60,7.20"/>
    </edge>
    <edge id=":J1_1" function="internal">
        <lane id=":J1_1_0" index="0" speed="13.89" length="11.20" shape="107.20,1.60 96.00,1.60"/>
    </edge>
    <edge id=":J1_2" function="internal">
        <lane id=":J1_2_0" index="0" speed="13.89" length="11.20" shape="96.00,-1.60 107.20,-1.60"/>
    </edge>
    <edge id=":J1_3" function="internal">
        <lane id=":J1_3_0" index="0" speed="7.33" length="4.04" shape="96.00,-1.60 98.45,-1.05 99.56,-0.00"/>
    </edge>
    <edge id=":J1_4" function="internal">
        <lane id=":J1_4_0" index="0" speed="7.33" length="7.68" shape="99.56,-0.00 100.20,0.60 101.25,3.35 101.60,7.20"/>
    </edge>
    <edge id=":J2_0" function="internal">
        <lane id=":J2_0_0" index="0" speed="13.89" length="3.00" shape="123.50,-1.60 126.50,-1.60"/>
    </edge>

    <edge id="-E0" from="J1" to="J0" priority="-1">
        <lane id="-E0_0" index="0" speed="13.89" length="96.00" shape="96.00,1.60 0.00,1.60"/>
    </edge>
    <edge id="-E1" from="J1" to="J2" priority="-1">
        <lane id="-E1_0" index="0" speed="13.89" length="16.30" shape="107.20,-1.60 123.50,-1.60"/>
    </edge>
    <edge id="E0" from="J0" to="J1" priority="-1">
        <lane id="E0_0" index="0" speed="13.89" length="96.00" shape="0.00,-1.60 96.00,-1.60"/>
    </edge>
    <edge id="E1" from="J2" to="J1" priority="-1">
        <lane id="E1_0" index="0" speed="13.89" length="16.30" shape="123.50,1.60 107.20,1.60"/>
    </edge>
    <edge id="E2" from="J1" to="J3" priority="-1">
        <lane id="E2_0" index="0" speed="13.89" length="42.80" shape="101.60,7.20 101.60,50.00"/>
    </edge>
    <edge id="E3" from="J2" to="J4" priority="-1">
        <lane id="E3_0" index="0" speed="13.89" length="73.50" shape="126.50,-1.60 200.00,-1.60"/>
    </edge>

    <tlLogic id="J2" type="static" programID="0" offset="0">
        <phase duration="82" state="r"/>
        <phase duration="3"  state="y"/>
        <phase duration="5"  state="G"/>
    </tlLogic>

    <junction id="J0" type="dead_end" x="0.00" y="0.00" incLanes="-E0_0" intLanes="" shape="0.00,0.00 0.00,3.20 0.00,0.00"/>
    <junction id="J1" type="priority" x="100.00" y="0.00" incLanes="E1_0 E0_0" intLanes=":J1_0_0 :J1_1_0 :J1_2_0 :J1_4_0" shape="100.00,7.20 103.20,7.20 103.64,4.98 104.20,4.20 104.98,3.64 105.98,3.31 107.20,3.20 107.20,-3.20 96.00,-3.20 96.00,3.20 98.22,3.64 99.00,4.20 99.56,4.98 99.89,5.98">
        <request index="0" response="0000" foes="1000" cont="0"/>
        <request index="1" response="0000" foes="1000" cont="0"/>
        <request index="2" response="0000" foes="0000" cont="0"/>
        <request index="3" response="0011" foes="0011" cont="1"/>
    </junction>
    <junction id="J2" type="traffic_light" x="125.00" y="0.00" incLanes="-E1_0" intLanes=":J2_0_0" shape="126.50,0.00 126.50,-3.20 123.50,-3.20 123.50,3.20">
        <request index="0" response="0" foes="0" cont="0"/>
    </junction>
    <junction id="J3" type="dead_end" x="100.00" y="50.00" incLanes="E2_0" intLanes="" shape="103.20,50.00 100.00,50.00"/>
    <junction id="J4" type="dead_end" x="200.00" y="0.00" incLanes="E3_0" intLanes="" shape="200.00,-3.20 200.00,0.00"/>

    <junction id=":J1_4_0" type="internal" x="99.56" y="-0.00" incLanes=":J1_3_0 E1_0" intLanes=":J1_0_0 :J1_1_0"/>

    <connection from="-E1" to="E3" fromLane="0" toLane="0" via=":J2_0_0" tl="J2" linkIndex="0" dir="s" state="O"/>
    <connection from="E0" to="-E1" fromLane="0" toLane="0" via=":J1_2_0" dir="s" state="M"/>
    <connection from="E0" to="E2" fromLane="0" toLane="0" via=":J1_3_0" dir="l" state="m"/>
    <connection from="E1" to="E2" fromLane="0" toLane="0" via=":J1_0_0" dir="r" state="M"/>
    <connection from="E1" to="-E0" fromLane="0" toLane="0" via=":J1_1_0" dir="s" state="M"/>

    <connection from=":J1_0" to="E2" fromLane="0" toLane="0" dir="r" state="M"/>
    <connection from=":J1_1" to="-E0" fromLane="0" toLane="0" dir="s" state="M"/>
    <connection from=":J1_2" to="-E1" fromLane="0" toLane="0" dir="s" state="M"/>
    <connection from=":J1_3" to="E2" fromLane="0" toLane="0" via=":J1_4_0" dir="l" state="m"/>
    <connection from=":J1_4" to="E2" fromLane="0" toLane="0" dir="l" state="M"/>
    <connection from=":J2_0" to="E3" fromLane="0" toLane="0" dir="s" state="M"/>

</net>
