<?xml version="1.0" encoding="UTF-8"?>

<!-- generated on 2021-11-26 10:12:00 by Eclipse SUMO netedit Version v1_10_0+1831-77099b212b6
-->

<routes xmlns:xsi="http://www.w3.org/2001/XMLSchema-instance" xsi:noNamespaceSchemaLocation="http://sumo.dlr.de/xsd/routes_file.xsd">
    <trip id="vehicle_2" type="DEFAULT_BIKETYPE" depart="0.00" from="E1" to="-E2"/>
    <trip id="vehicle_6" type="DEFAULT_BIKETYPE" depart="0.00" from="E1" to="-E2"/>
    <trip id="vehicle_1" type="DEFAULT_BIKETYPE" depart="0.00" from="E1" to="-E2"/>
    <trip id="vehicle_5" type="DEFAULT_BIKETYPE" depart="0.00" from="E1" to="-E2"/>
    <trip id="vehicle_4" type="DEFAULT_BIKETYPE" depart="0.00" from="E1" to="-E2"/>
    <trip id="vehicle_7" depart="0.00" from="E1" to="-E2"/>
    <trip id="vehicle_13" depart="0.00" from="E1" to="-E2"/>
    <trip id="vehicle_0" type="DEFAULT_BIKETYPE" depart="0.00" from="E1" to="-E2"/>
    <trip id="vehicle_3" type="DEFAULT_BIKETYPE" depart="0.00" from="E1" to="-E2"/>
    <trip id="vehicle_8" depart="0.00" from="E1" to="-E2"/>
    <trip id="vehicle_11" depart="0.00" from="E1" to="-E2"/>
    <trip id="vehicle_10" depart="0.00" from="E1" to="-E2"/>
    <trip id="vehicle_12" depart="0.00" from="E1" to="-E2"/>
    <trip id="vehicle_9" depart="0.00" from="E1" to="-E2"/>
</routes>
