<?xml version="1.0" encoding="UTF-8"?>

<!-- generated on 2021-11-26 09:05:53 by Eclipse SUMO netedit Version v1_10_0+1831-77099b212b6
-->

<routes xmlns:xsi="http://www.w3.org/2001/XMLSchema-instance" xsi:noNamespaceSchemaLocation="http://sumo.dlr.de/xsd/routes_file.xsd">
    <trip id="vehicle_1" type="DEFAULT_BIKETYPE" depart="0.00" from="-E2" to="E1"/>
    <trip id="vehicle_0" type="DEFAULT_BIKETYPE" depart="0.00" from="E0" to="E2"/>
    <trip id="vehicle_2" type="DEFAULT_BIKETYPE" depart="0.00" from="-E1" to="-E0"/>
</routes>
