<?xml version="1.0" encoding="UTF-8"?>

<!-- generated on 2021-12-20 19:52:26 by Eclipse SUMO netedit Version v1_10_0+3048-33ee3c46082
<configuration xmlns:xsi="http://www.w3.org/2001/XMLSchema-instance" xsi:noNamespaceSchemaLocation="http://sumo.dlr.de/xsd/netconvertConfiguration.xsd">

    <input>
        <sumo-net-file value="D:\SUMO\sumo-1_10_0\scenarios\indirect-turn-yes.net.xml"/>
    </input>

    <output>
        <output-file value="D:\SUMO\sumo-1_10_0\scenarios\indirect-turn-no-2.net.xml"/>
    </output>

    <processing>
        <geometry.min-radius.fix.railways value="false"/>
        <geometry.max-grade.fix value="false"/>
        <offset.disable-normalization value="true"/>
        <lefthand value="false"/>
    </processing>

    <junctions>
        <no-turnarounds value="true"/>
        <junctions.corner-detail value="5"/>
        <junctions.limit-turn-speed value="5.5"/>
        <rectangular-lane-cut value="false"/>
    </junctions>

    <pedestrian>
        <walkingareas value="false"/>
    </pedestrian>

    <report>
        <aggregate-warnings value="5"/>
    </report>

</configuration>
-->

<net version="1.9" junctionCornerDetail="5" limitTurnSpeed="5.50" xmlns:xsi="http://www.w3.org/2001/XMLSchema-instance" xsi:noNamespaceSchemaLocation="http://sumo.dlr.de/xsd/net_file.xsd">

    <location netOffset="0.00,0.00" convBoundary="-36.82,2.02,88.72,94.42" origBoundary="-10000000000.00,-10000000000.00,10000000000.00,10000000000.00" projParameter="!"/>

    <edge id=":gneJ1_0" function="internal">
        <lane id=":gneJ1_0_0" index="0" allow="bicycle" speed="4.86" length="4.94" width="2.00" shape="30.22,48.89 28.89,49.07 27.94,49.65 27.36,50.61 27.15,51.96"/>
    </edge>
    <edge id=":gneJ1_1" function="internal">
        <lane id=":gneJ1_1_0" index="0" allow="bicycle" speed="13.89" length="14.44" width="2.00" shape="30.22,48.89 15.78,48.85"/>
    </edge>
    <edge id=":gneJ1_2" function="internal">
        <lane id=":gneJ1_2_0" index="0" allow="bicycle" speed="8.94" length="5.04" width="2.00" shape="30.22,48.89 25.24,48.16"/>
    </edge>
    <edge id=":gneJ1_3" function="internal">
        <lane id=":gneJ1_3_0" index="0" speed="6.55" length="2.96" shape="30.23,46.29 27.77,46.63 27.36,46.88"/>
    </edge>
    <edge id=":gneJ1_4" function="internal">
        <lane id=":gneJ1_4_0" index="0" speed="13.89" length="14.45" shape="30.23,46.29 15.79,46.25"/>
    </edge>
    <edge id=":gneJ1_5" function="internal">
        <lane id=":gneJ1_5_0" index="0" speed="8.00" length="5.92" shape="30.23,46.29 26.38,45.72 24.64,44.67"/>
    </edge>
    <edge id=":gneJ1_24" function="internal">
        <lane id=":gneJ1_24_0" index="0" allow="bicycle" speed="8.94" length="13.34" width="2.00" shape="25.24,48.16 21.68,46.01 19.56,42.44 18.86,37.45"/>
    </edge>
    <edge id=":gneJ1_25" function="internal">
        <lane id=":gneJ1_25_0" index="0" speed="6.55" length="6.15" shape="27.36,46.88 26.01,47.69 24.93,49.45 24.55,51.93"/>
    </edge>
    <edge id=":gneJ1_26" function="internal">
        <lane id=":gneJ1_26_0" index="0" speed="8.00" length="8.27" shape="24.64,44.67 23.64,44.06 22.00,41.31 21.46,37.46"/>
    </edge>
    <edge id=":gneJ1_6" function="internal">
        <lane id=":gneJ1_6_0" index="0" allow="bicycle" speed="4.81" length="4.84" width="2.00" shape="27.26,37.48 27.44,38.79 28.00,39.73 28.94,40.29 30.25,40.49"/>
    </edge>
    <edge id=":gneJ1_7" function="internal">
        <lane id=":gneJ1_7_0" index="0" allow="bicycle" speed="13.89" length="14.49" width="2.00" shape="27.26,37.48 27.15,51.96"/>
    </edge>
    <edge id=":gneJ1_8" function="internal">
        <lane id=":gneJ1_8_0" index="0" allow="bicycle" speed="8.96" length="10.80" width="2.00" shape="27.26,37.48 26.53,42.46 24.37,46.01 22.99,46.84"/>
    </edge>
    <edge id=":gneJ1_9" function="internal">
        <lane id=":gneJ1_9_0" index="0" speed="6.51" length="2.94" shape="24.66,37.47 25.00,39.92 25.24,40.31"/>
    </edge>
    <edge id=":gneJ1_10" function="internal">
        <lane id=":gneJ1_10_0" index="0" speed="13.89" length="14.46" shape="24.66,37.47 24.55,51.93"/>
    </edge>
    <edge id=":gneJ1_11" function="internal">
        <lane id=":gneJ1_11_0" index="0" speed="8.01" length="5.96" shape="24.66,37.47 24.10,41.31 23.02,43.09"/>
    </edge>
    <edge id=":gneJ1_27" function="internal">
        <lane id=":gneJ1_27_0" index="0" allow="bicycle" speed="8.96" length="7.62" width="2.00" shape="22.99,46.84 20.79,48.14 15.78,48.85"/>
    </edge>
    <edge id=":gneJ1_28" function="internal">
        <lane id=":gneJ1_28_0" index="0" speed="6.51" length="6.09" shape="25.24,40.31 26.05,41.67 27.79,42.73 30.24,43.09"/>
    </edge>
    <edge id=":gneJ1_29" function="internal">
        <lane id=":gneJ1_29_0" index="0" speed="8.01" length="8.27" shape="23.02,43.09 22.43,44.06 19.66,45.70 15.79,46.25"/>
    </edge>
    <edge id=":gneJ1_12" function="internal">
        <lane id=":gneJ1_12_0" index="0" allow="bicycle" speed="4.83" length="4.88" width="2.00" shape="15.80,40.45 17.13,40.26 18.09,39.70 18.67,38.76 18.86,37.45"/>
    </edge>
    <edge id=":gneJ1_13" function="internal">
        <lane id=":gneJ1_13_0" index="0" allow="bicycle" speed="13.89" length="14.45" width="2.00" shape="15.80,40.45 30.25,40.49"/>
    </edge>
    <edge id=":gneJ1_14" function="internal">
        <lane id=":gneJ1_14_0" index="0" allow="bicycle" speed="8.94" length="5.07" width="2.00" shape="15.80,40.45 20.82,41.17"/>
    </edge>
    <edge id=":gneJ1_15" function="internal">
        <lane id=":gneJ1_15_0" index="0" speed="6.52" length="2.98" shape="15.79,43.05 18.27,42.70 18.68,42.45"/>
    </edge>
    <edge id=":gneJ1_16" function="internal">
        <lane id=":gneJ1_16_0" index="0" speed="13.89" length="14.45" shape="15.79,43.05 30.24,43.09"/>
    </edge>
    <edge id=":gneJ1_17" function="internal">
        <lane id=":gneJ1_17_0" index="0" speed="7.99" length="5.95" shape="15.79,43.05 19.66,43.61 21.40,44.66"/>
    </edge>
    <edge id=":gneJ1_30" function="internal">
        <lane id=":gneJ1_30_0" index="0" allow="bicycle" speed="8.94" length="13.41" width="2.00" shape="20.82,41.17 24.38,43.34 26.50,46.93 27.15,51.96"/>
    </edge>
    <edge id=":gneJ1_31" function="internal">
        <lane id=":gneJ1_31_0" index="0" speed="6.52" length="6.09" shape="18.68,42.45 20.04,41.65 21.10,39.91 21.46,37.46"/>
    </edge>
    <edge id=":gneJ1_32" function="internal">
        <lane id=":gneJ1_32_0" index="0" speed="7.99" length="8.32" shape="21.40,44.66 22.42,45.28 24.05,48.05 24.55,51.93"/>
    </edge>
    <edge id=":gneJ1_18" function="internal">
        <lane id=":gneJ1_18_0" index="0" allow="bicycle" speed="4.79" length="4.84" width="2.00" shape="18.75,51.86 18.58,50.54 18.03,49.60 17.09,49.04 15.78,48.85"/>
    </edge>
    <edge id=":gneJ1_19" function="internal">
        <lane id=":gneJ1_19_0" index="0" allow="bicycle" speed="13.89" length="14.41" width="2.00" shape="18.75,51.86 18.86,37.45"/>
    </edge>
    <edge id=":gneJ1_20" function="internal">
        <lane id=":gneJ1_20_0" index="0" allow="bicycle" speed="8.98" length="10.77" width="2.00" shape="18.75,51.86 19.52,46.87 21.70,43.31 23.02,42.52"/>
    </edge>
    <edge id=":gneJ1_21" function="internal">
        <lane id=":gneJ1_21_0" index="0" speed="6.50" length="2.99" shape="21.35,51.89 21.03,49.43 20.78,48.99"/>
    </edge>
    <edge id=":gneJ1_22" function="internal">
        <lane id=":gneJ1_22_0" index="0" speed="13.89" length="14.43" shape="21.35,51.89 21.46,37.46"/>
    </edge>
    <edge id=":gneJ1_23" function="internal">
        <lane id=":gneJ1_23_0" index="0" speed="8.04" length="5.92" shape="21.35,51.89 21.95,48.03 23.00,46.31"/>
    </edge>
    <edge id=":gneJ1_33" function="internal">
        <lane id=":gneJ1_33_0" index="0" allow="bicycle" speed="8.98" length="7.64" width="2.00" shape="23.02,42.52 25.27,41.18 30.25,40.49"/>
    </edge>
    <edge id=":gneJ1_34" function="internal">
        <lane id=":gneJ1_34_0" index="0" speed="6.50" length="6.07" shape="20.78,48.99 20.00,47.66 18.25,46.60 15.79,46.25"/>
    </edge>
    <edge id=":gneJ1_35" function="internal">
        <lane id=":gneJ1_35_0" index="0" speed="8.04" length="8.32" shape="23.00,46.31 23.63,45.27 26.39,43.62 30.24,43.09"/>
    </edge>

    <edge id="0" from="gneJ1" to="gneJ4" priority="-1">
        <lane id="0_0" index="0" allow="bicycle" speed="13.89" length="35.44" width="2.00" shape="18.86,37.45 18.96,2.01"/>
        <lane id="0_1" index="1" speed="13.89" length="35.44" shape="21.46,37.46 21.56,2.02"/>
    </edge>
    <edge id="1" from="gneJ1" to="gneJ2" priority="-1">
        <lane id="1_0" index="0" allow="bicycle" speed="13.89" length="58.48" width="2.00" shape="30.25,40.49 88.73,40.69"/>
        <lane id="1_1" index="1" speed="13.89" length="58.48" shape="30.24,43.09 88.73,43.29"/>
    </edge>
    <edge id="2" from="gneJ1" to="gneJ3" priority="-1">
        <lane id="2_0" index="0" allow="bicycle" speed="13.89" length="42.51" width="2.00" shape="27.15,51.96 26.65,94.47"/>
        <lane id="2_1" index="1" speed="13.89" length="42.51" shape="24.55,51.93 24.05,94.44"/>
    </edge>
    <edge id="3" from="gneJ1" to="gneJ0" priority="-1">
        <lane id="3_0" index="0" allow="bicycle" speed="13.89" length="52.61" width="2.00" shape="15.78,48.85 -36.83,48.74"/>
        <lane id="3_1" index="1" speed="13.89" length="52.61" shape="15.79,46.25 -36.82,46.14"/>
    </edge>
    <edge id="4" from="gneJ4" to="gneJ1" priority="-1">
        <lane id="4_0" index="0" allow="bicycle" speed="13.89" length="35.44" width="2.00" shape="27.36,2.03 27.26,37.48"/>
        <lane id="4_1" index="1" speed="13.89" length="35.44" shape="24.76,2.02 24.66,37.47"/>
    </edge>
    <edge id="5" from="gneJ2" to="gneJ1" priority="-1">
        <lane id="5_0" index="0" allow="bicycle" speed="13.89" length="58.48" width="2.00" shape="88.71,49.09 30.22,48.89"/>
        <lane id="5_1" index="1" speed="13.89" length="58.48" shape="88.71,46.49 30.23,46.29"/>
    </edge>
    <edge id="6" from="gneJ3" to="gneJ1" priority="-1">
        <lane id="6_0" index="0" allow="bicycle" speed="13.89" length="42.51" width="2.00" shape="18.25,94.37 18.75,51.86"/>
        <lane id="6_1" index="1" speed="13.89" length="42.51" shape="20.85,94.40 21.35,51.89"/>
    </edge>
    <edge id="7" from="gneJ0" to="gneJ1" priority="-1">
        <lane id="7_0" index="0" allow="bicycle" speed="13.89" length="52.61" width="2.00" shape="-36.81,40.34 15.80,40.45"/>
        <lane id="7_1" index="1" speed="13.89" length="52.61" shape="-36.82,42.94 15.79,43.05"/>
    </edge>

    <tlLogic id="gneJ1" type="static" programID="0" offset="0">
        <phase duration="42" state="GGggGgrrrrrrGGggGgrrrrrr"/>
        <phase duration="3"  state="yyyyyyrrrrrryyyyyyrrrrrr"/>
        <phase duration="42" state="rrrrrrGGggGgrrrrrrGGggGg"/>
        <phase duration="3"  state="rrrrrryyyyyyrrrrrryyyyyy"/>
    </tlLogic>

    <junction id="gneJ0" type="dead_end" x="-36.82" y="44.54" incLanes="3_0 3_1" intLanes="" shape="-36.82,44.54 -36.83,49.74 -36.82,44.54"/>
    <junction id="gneJ1" type="traffic_light" x="23.04" y="44.66" incLanes="5_0 5_1 4_0 4_1 7_0 7_1 6_0 6_1" intLanes=":gneJ1_0_0 :gneJ1_1_0 :gneJ1_24_0 :gneJ1_25_0 :gneJ1_4_0 :gneJ1_26_0 :gneJ1_6_0 :gneJ1_7_0 :gneJ1_27_0 :gneJ1_28_0 :gneJ1_10_0 :gneJ1_29_0 :gneJ1_12_0 :gneJ1_13_0 :gneJ1_30_0 :gneJ1_31_0 :gneJ1_16_0 :gneJ1_32_0 :gneJ1_18_0 :gneJ1_19_0 :gneJ1_33_0 :gneJ1_34_0 :gneJ1_22_0 :gneJ1_35_0" shape="30.22,49.89 30.25,39.49 29.14,39.26 28.76,38.98 28.48,38.59 28.31,38.09 28.26,37.48 17.86,37.45 17.63,38.56 17.34,38.95 16.94,39.23 16.43,39.39 15.80,39.45 15.78,49.85 16.89,50.07 17.27,50.35 17.55,50.74 17.71,51.24 17.75,51.85 28.15,51.97 28.39,50.81 28.68,50.40 29.08,50.11 29.59,49.94">
        <request index="0"  response="000000000000000000000000" foes="000000000100000010000000" cont="0"/>
        <request index="1"  response="101100000000000100000000" foes="111111100100010110001000" cont="0"/>
        <request index="2"  response="100100111111100100010000" foes="110110111111110110011000" cont="1"/>
        <request index="3"  response="000000000000000000000110" foes="000000100100010010000110" cont="1"/>
        <request index="4"  response="101100000000100100000000" foes="111110100100110110000100" cont="0"/>
        <request index="5"  response="100100011110100100000000" foes="110100011110110110000000" cont="1"/>
        <request index="6"  response="000000000010000000000000" foes="000100000010000000000000" cont="0"/>
        <request index="7"  response="000000010110000000111111" foes="100100010110001000111111" cont="0"/>
        <request index="8"  response="111111110110010000110110" foes="111111110110011000110110" cont="1"/>
        <request index="9"  response="000000010010000110000000" foes="100100010010000110000000" cont="1"/>
        <request index="10" response="000000110110000000111110" foes="100100110110000100111110" cont="0"/>
        <request index="11" response="011110110110000000110100" foes="011110110110000000110100" cont="1"/>
        <request index="12" response="000000000000000000000000" foes="000010000000000000000100" cont="0"/>
        <request index="13" response="000100000000101100000000" foes="010110001000111111100100" cont="0"/>
        <request index="14" response="100100010000100100011011" foes="110110011000110110111111" cont="1"/>
        <request index="15" response="000000000110000000000000" foes="010010000110000000100100" cont="1"/>
        <request index="16" response="100100000000101100000000" foes="110110000100111110100100" cont="0"/>
        <request index="17" response="100100000000100100011010" foes="110110000000110100011110" cont="1"/>
        <request index="18" response="000000000000000000000010" foes="000000000000000100000010" cont="0"/>
        <request index="19" response="000000111111000000010110" foes="001000111111100100010110" cont="0"/>
        <request index="20" response="010000110110011011110110" foes="011000110110111111110110" cont="1"/>
        <request index="21" response="000110000000000000010010" foes="000110000000100100010010" cont="1"/>
        <request index="22" response="000000111110000000110110" foes="000100111110100100110110" cont="0"/>
        <request index="23" response="000000110100011010110110" foes="000000110100011110110110" cont="1"/>
    </junction>
    <junction id="gneJ2" type="dead_end" x="88.72" y="44.89" incLanes="1_0 1_1" intLanes="" shape="88.72,44.89 88.74,39.69 88.72,44.89"/>
    <junction id="gneJ3" type="dead_end" x="22.45" y="94.42" incLanes="2_0 2_1" intLanes="" shape="22.45,94.42 27.65,94.48 22.45,94.42"/>
    <junction id="gneJ4" type="dead_end" x="23.16" y="2.02" incLanes="0_0 0_1" intLanes="" shape="23.16,2.02 17.96,2.01 23.16,2.02"/>

    <junction id=":gneJ1_24_0" type="internal" x="25.24" y="48.16" incLanes=":gneJ1_2_0 7_0 7_1 :gneJ1_14_0 :gneJ1_17_0" intLanes=":gneJ1_30_0 :gneJ1_32_0 :gneJ1_4_0 :gneJ1_7_0 :gneJ1_8_0 :gneJ1_10_0 :gneJ1_11_0 :gneJ1_12_0 :gneJ1_13_0 :gneJ1_14_0 :gneJ1_15_0 :gneJ1_16_0 :gneJ1_17_0 :gneJ1_19_0 :gneJ1_20_0 :gneJ1_22_0 :gneJ1_23_0"/>
    <junction id=":gneJ1_25_0" type="internal" x="27.36" y="46.88" incLanes=":gneJ1_3_0 5_0" intLanes=":gneJ1_1_0 :gneJ1_2_0 :gneJ1_7_0 :gneJ1_10_0 :gneJ1_14_0 :gneJ1_17_0"/>
    <junction id=":gneJ1_26_0" type="internal" x="24.64" y="44.67" incLanes=":gneJ1_5_0 7_0 7_1 :gneJ1_14_0" intLanes=":gneJ1_30_0 :gneJ1_7_0 :gneJ1_8_0 :gneJ1_10_0 :gneJ1_11_0 :gneJ1_12_0 :gneJ1_13_0 :gneJ1_14_0 :gneJ1_15_0 :gneJ1_16_0 :gneJ1_19_0 :gneJ1_20_0 :gneJ1_22_0 :gneJ1_23_0"/>
    <junction id=":gneJ1_27_0" type="internal" x="22.99" y="46.84" incLanes=":gneJ1_8_0 6_0 6_1" intLanes=":gneJ1_1_0 :gneJ1_2_0 :gneJ1_4_0 :gneJ1_5_0 :gneJ1_10_0 :gneJ1_13_0 :gneJ1_14_0 :gneJ1_16_0 :gneJ1_17_0 :gneJ1_18_0 :gneJ1_19_0 :gneJ1_20_0 :gneJ1_21_0 :gneJ1_22_0 :gneJ1_23_0"/>
    <junction id=":gneJ1_28_0" type="internal" x="25.24" y="40.31" incLanes=":gneJ1_9_0 4_0" intLanes=":gneJ1_7_0 :gneJ1_8_0 :gneJ1_13_0 :gneJ1_16_0 :gneJ1_20_0 :gneJ1_23_0"/>
    <junction id=":gneJ1_29_0" type="internal" x="23.02" y="43.09" incLanes=":gneJ1_11_0 6_0 6_1" intLanes=":gneJ1_1_0 :gneJ1_2_0 :gneJ1_4_0 :gneJ1_5_0 :gneJ1_13_0 :gneJ1_14_0 :gneJ1_16_0 :gneJ1_17_0 :gneJ1_18_0 :gneJ1_19_0 :gneJ1_20_0 :gneJ1_21_0 :gneJ1_22_0"/>
    <junction id=":gneJ1_30_0" type="internal" x="20.82" y="41.17" incLanes=":gneJ1_14_0 5_0 5_1" intLanes=":gneJ1_0_0 :gneJ1_1_0 :gneJ1_2_0 :gneJ1_3_0 :gneJ1_4_0 :gneJ1_5_0 :gneJ1_7_0 :gneJ1_8_0 :gneJ1_10_0 :gneJ1_11_0 :gneJ1_16_0 :gneJ1_19_0 :gneJ1_20_0 :gneJ1_22_0 :gneJ1_23_0"/>
    <junction id=":gneJ1_31_0" type="internal" x="18.68" y="42.45" incLanes=":gneJ1_15_0 7_0" intLanes=":gneJ1_2_0 :gneJ1_5_0 :gneJ1_13_0 :gneJ1_14_0 :gneJ1_19_0 :gneJ1_22_0"/>
    <junction id=":gneJ1_32_0" type="internal" x="21.40" y="44.66" incLanes=":gneJ1_17_0 5_0 5_1" intLanes=":gneJ1_0_0 :gneJ1_1_0 :gneJ1_2_0 :gneJ1_3_0 :gneJ1_4_0 :gneJ1_7_0 :gneJ1_8_0 :gneJ1_10_0 :gneJ1_11_0 :gneJ1_19_0 :gneJ1_20_0 :gneJ1_22_0 :gneJ1_23_0"/>
    <junction id=":gneJ1_33_0" type="internal" x="23.02" y="42.52" incLanes=":gneJ1_20_0 4_0 4_1" intLanes=":gneJ1_1_0 :gneJ1_2_0 :gneJ1_4_0 :gneJ1_5_0 :gneJ1_6_0 :gneJ1_7_0 :gneJ1_8_0 :gneJ1_9_0 :gneJ1_10_0 :gneJ1_11_0 :gneJ1_13_0 :gneJ1_14_0 :gneJ1_16_0 :gneJ1_17_0 :gneJ1_22_0"/>
    <junction id=":gneJ1_34_0" type="internal" x="20.78" y="48.99" incLanes=":gneJ1_21_0 6_0" intLanes=":gneJ1_1_0 :gneJ1_4_0 :gneJ1_8_0 :gneJ1_11_0 :gneJ1_19_0 :gneJ1_20_0"/>
    <junction id=":gneJ1_35_0" type="internal" x="23.00" y="46.31" incLanes=":gneJ1_23_0 4_0 4_1" intLanes=":gneJ1_1_0 :gneJ1_2_0 :gneJ1_4_0 :gneJ1_5_0 :gneJ1_6_0 :gneJ1_7_0 :gneJ1_8_0 :gneJ1_9_0 :gneJ1_10_0 :gneJ1_13_0 :gneJ1_14_0 :gneJ1_16_0 :gneJ1_17_0"/>

    <connection from="4" to="1" fromLane="0" toLane="0" via=":gneJ1_6_0" tl="gneJ1" linkIndex="6" dir="r" state="o"/>
    <connection from="4" to="2" fromLane="0" toLane="0" via=":gneJ1_7_0" tl="gneJ1" linkIndex="7" dir="s" state="o"/>
    <connection from="4" to="3" fromLane="0" toLane="0" via=":gneJ1_8_0" tl="gneJ1" linkIndex="8" dir="l" state="o"/>
    <connection from="4" to="1" fromLane="1" toLane="1" via=":gneJ1_9_0" tl="gneJ1" linkIndex="9" dir="r" state="o"/>
    <connection from="4" to="2" fromLane="1" toLane="1" via=":gneJ1_10_0" tl="gneJ1" linkIndex="10" dir="s" state="o"/>
    <connection from="4" to="3" fromLane="1" toLane="1" via=":gneJ1_11_0" tl="gneJ1" linkIndex="11" dir="l" state="o"/>
    <connection from="5" to="2" fromLane="0" toLane="0" via=":gneJ1_0_0" tl="gneJ1" linkIndex="0" dir="r" state="O"/>
    <connection from="5" to="3" fromLane="0" toLane="0" via=":gneJ1_1_0" tl="gneJ1" linkIndex="1" dir="s" state="O"/>
    <connection from="5" to="0" fromLane="0" toLane="0" via=":gneJ1_2_0" tl="gneJ1" linkIndex="2" dir="l" state="o"/>
    <connection from="5" to="2" fromLane="1" toLane="1" via=":gneJ1_3_0" tl="gneJ1" linkIndex="3" dir="r" state="o"/>
    <connection from="5" to="3" fromLane="1" toLane="1" via=":gneJ1_4_0" tl="gneJ1" linkIndex="4" dir="s" state="O"/>
    <connection from="5" to="0" fromLane="1" toLane="1" via=":gneJ1_5_0" tl="gneJ1" linkIndex="5" dir="l" state="o"/>
    <connection from="6" to="3" fromLane="0" toLane="0" via=":gneJ1_18_0" tl="gneJ1" linkIndex="18" dir="r" state="o"/>
    <connection from="6" to="0" fromLane="0" toLane="0" via=":gneJ1_19_0" tl="gneJ1" linkIndex="19" dir="s" state="o"/>
    <connection from="6" to="1" fromLane="0" toLane="0" via=":gneJ1_20_0" tl="gneJ1" linkIndex="20" dir="l" state="o"/>
    <connection from="6" to="3" fromLane="1" toLane="1" via=":gneJ1_21_0" tl="gneJ1" linkIndex="21" dir="r" state="o"/>
    <connection from="6" to="0" fromLane="1" toLane="1" via=":gneJ1_22_0" tl="gneJ1" linkIndex="22" dir="s" state="o"/>
    <connection from="6" to="1" fromLane="1" toLane="1" via=":gneJ1_23_0" tl="gneJ1" linkIndex="23" dir="l" state="o"/>
    <connection from="7" to="0" fromLane="0" toLane="0" via=":gneJ1_12_0" tl="gneJ1" linkIndex="12" dir="r" state="O"/>
    <connection from="7" to="1" fromLane="0" toLane="0" via=":gneJ1_13_0" tl="gneJ1" linkIndex="13" dir="s" state="O"/>
    <connection from="7" to="2" fromLane="0" toLane="0" via=":gneJ1_14_0" tl="gneJ1" linkIndex="14" dir="l" state="o"/>
    <connection from="7" to="0" fromLane="1" toLane="1" via=":gneJ1_15_0" tl="gneJ1" linkIndex="15" dir="r" state="o"/>
    <connection from="7" to="1" fromLane="1" toLane="1" via=":gneJ1_16_0" tl="gneJ1" linkIndex="16" dir="s" state="O"/>
    <connection from="7" to="2" fromLane="1" toLane="1" via=":gneJ1_17_0" tl="gneJ1" linkIndex="17" dir="l" state="o"/>

    <connection from=":gneJ1_0" to="2" fromLane="0" toLane="0" dir="r" state="M"/>
    <connection from=":gneJ1_1" to="3" fromLane="0" toLane="0" dir="s" state="M"/>
    <connection from=":gneJ1_2" to="0" fromLane="0" toLane="0" via=":gneJ1_24_0" dir="l" state="m"/>
    <connection from=":gneJ1_24" to="0" fromLane="0" toLane="0" dir="l" state="M"/>
    <connection from=":gneJ1_3" to="2" fromLane="0" toLane="1" via=":gneJ1_25_0" dir="r" state="m"/>
    <connection from=":gneJ1_25" to="2" fromLane="0" toLane="1" dir="r" state="M"/>
    <connection from=":gneJ1_4" to="3" fromLane="0" toLane="1" dir="s" state="M"/>
    <connection from=":gneJ1_5" to="0" fromLane="0" toLane="1" via=":gneJ1_26_0" dir="l" state="m"/>
    <connection from=":gneJ1_26" to="0" fromLane="0" toLane="1" dir="l" state="M"/>
    <connection from=":gneJ1_6" to="1" fromLane="0" toLane="0" dir="r" state="M"/>
    <connection from=":gneJ1_7" to="2" fromLane="0" toLane="0" dir="s" state="M"/>
    <connection from=":gneJ1_8" to="3" fromLane="0" toLane="0" via=":gneJ1_27_0" dir="l" state="m"/>
    <connection from=":gneJ1_27" to="3" fromLane="0" toLane="0" dir="l" state="M"/>
    <connection from=":gneJ1_9" to="1" fromLane="0" toLane="1" via=":gneJ1_28_0" dir="r" state="m"/>
    <connection from=":gneJ1_28" to="1" fromLane="0" toLane="1" dir="r" state="M"/>
    <connection from=":gneJ1_10" to="2" fromLane="0" toLane="1" dir="s" state="M"/>
    <connection from=":gneJ1_11" to="3" fromLane="0" toLane="1" via=":gneJ1_29_0" dir="l" state="m"/>
    <connection from=":gneJ1_29" to="3" fromLane="0" toLane="1" dir="l" state="M"/>
    <connection from=":gneJ1_12" to="0" fromLane="0" toLane="0" dir="r" state="M"/>
    <connection from=":gneJ1_13" to="1" fromLane="0" toLane="0" dir="s" state="M"/>
    <connection from=":gneJ1_14" to="2" fromLane="0" toLane="0" via=":gneJ1_30_0" dir="l" state="m"/>
    <connection from=":gneJ1_30" to="2" fromLane="0" toLane="0" dir="l" state="M"/>
    <connection from=":gneJ1_15" to="0" fromLane="0" toLane="1" via=":gneJ1_31_0" dir="r" state="m"/>
    <connection from=":gneJ1_31" to="0" fromLane="0" toLane="1" dir="r" state="M"/>
    <connection from=":gneJ1_16" to="1" fromLane="0" toLane="1" dir="s" state="M"/>
    <connection from=":gneJ1_17" to="2" fromLane="0" toLane="1" via=":gneJ1_32_0" dir="l" state="m"/>
    <connection from=":gneJ1_32" to="2" fromLane="0" toLane="1" dir="l" state="M"/>
    <connection from=":gneJ1_18" to="3" fromLane="0" toLane="0" dir="r" state="M"/>
    <connection from=":gneJ1_19" to="0" fromLane="0" toLane="0" dir="s" state="M"/>
    <connection from=":gneJ1_20" to="1" fromLane="0" toLane="0" via=":gneJ1_33_0" dir="l" state="m"/>
    <connection from=":gneJ1_33" to="1" fromLane="0" toLane="0" dir="l" state="M"/>
    <connection from=":gneJ1_21" to="3" fromLane="0" toLane="1" via=":gneJ1_34_0" dir="r" state="m"/>
    <connection from=":gneJ1_34" to="3" fromLane="0" toLane="1" dir="r" state="M"/>
    <connection from=":gneJ1_22" to="0" fromLane="0" toLane="1" dir="s" state="M"/>
    <connection from=":gneJ1_23" to="1" fromLane="0" toLane="1" via=":gneJ1_35_0" dir="l" state="m"/>
    <connection from=":gneJ1_35" to="1" fromLane="0" toLane="1" dir="l" state="M"/>

</net>
