<?xml version="1.0" encoding="UTF-8"?>

<!-- generated on 2021-12-20 19:54:07 by Eclipse SUMO netedit Version v1_10_0+3048-33ee3c46082
-->

<routes xmlns:xsi="http://www.w3.org/2001/XMLSchema-instance" xsi:noNamespaceSchemaLocation="http://sumo.dlr.de/xsd/routes_file.xsd">
    <flow id="flow_00" begin="0.00" from="7" to="2" end="3600.00" probability="0.01"/>
    <flow id="flow_01" begin="0.00" from="4" to="2" end="3600.00" probability="0.10"/>
    <flow id="flow_02" begin="0.00" from="5" to="2" end="3600.00" probability="0.05"/>
    <flow id="flow_03" begin="0.00" from="6" to="1" end="3600.00" probability="0.01"/>
    <flow id="flow_10" begin="0.00" from="7" to="1" end="3600.00" probability="0.10"/>
    <flow id="flow_11" begin="0.00" from="4" to="1" end="3600.00" probability="0.05"/>
    <flow id="flow_12" begin="0.00" from="5" to="0" end="3600.00" probability="0.01"/>
    <flow id="flow_13" begin="0.00" from="6" to="0" end="3600.00" probability="0.10"/>
    <flow id="flow_20" begin="0.00" from="7" to="0" end="3600.00" probability="0.05"/>
    <flow id="flow_21" begin="0.00" from="4" to="3" end="3600.00" probability="0.01"/>
    <flow id="flow_22" begin="0.00" from="5" to="3" end="3600.00" probability="0.10"/>
    <flow id="flow_23" begin="0.00" from="6" to="3" end="3600.00" probability="0.05"/>
    <flow id="flow_30" type="DEFAULT_BIKETYPE" begin="0.00" from="7" to="0" end="3600.00" probability="0.05"/>
    <flow id="flow_31" type="DEFAULT_BIKETYPE" begin="0.00" from="4" to="3" end="3600.00" probability="0.01"/>
    <flow id="flow_32" type="DEFAULT_BIKETYPE" begin="0.00" from="5" to="3" end="3600.00" probability="0.10"/>
    <flow id="flow_33" type="DEFAULT_BIKETYPE" begin="0.00" from="6" to="3" end="3600.00" probability="0.05"/>
    <flow id="flow_40" type="DEFAULT_BIKETYPE" begin="0.00" from="7" to="1" end="3600.00" probability="0.10"/>
    <flow id="flow_41" type="DEFAULT_BIKETYPE" begin="0.00" from="4" to="1" end="3600.00" probability="0.05"/>
    <flow id="flow_42" type="DEFAULT_BIKETYPE" begin="0.00" from="5" to="0" end="3600.00" probability="0.01"/>
    <flow id="flow_43" type="DEFAULT_BIKETYPE" begin="0.00" from="6" to="0" end="3600.00" probability="0.10"/>
    <flow id="flow_50" type="DEFAULT_BIKETYPE" begin="0.00" from="7" to="2" end="3600.00" probability="0.01"/>
    <flow id="flow_51" type="DEFAULT_BIKETYPE" begin="0.00" from="4" to="2" end="3600.00" probability="0.10"/>
    <flow id="flow_52" type="DEFAULT_BIKETYPE" begin="0.00" from="5" to="2" end="3600.00" probability="0.05"/>
    <flow id="flow_53" type="DEFAULT_BIKETYPE" begin="0.00" from="6" to="1" end="3600.00" probability="0.01"/>
</routes>
