<?xml version="1.0" encoding="UTF-8"?>

<!-- generated on 2021-12-04 17:54:46 by Eclipse SUMO netedit Version v1_10_0+1831-77099b212b6
-->

<routes xmlns:xsi="http://www.w3.org/2001/XMLSchema-instance" xsi:noNamespaceSchemaLocation="http://sumo.dlr.de/xsd/routes_file.xsd">
    <trip id="vehicle_0" type="DEFAULT_BIKETYPE" depart="0.00" from="E2" to="E4"/>
</routes>
