<?xml version="1.0" encoding="UTF-8"?>

<!-- generated on 2021-12-04 18:11:12 by Eclipse SUMO netedit Version v1_10_0+1831-77099b212b6
<configuration xmlns:xsi="http://www.w3.org/2001/XMLSchema-instance" xsi:noNamespaceSchemaLocation="http://sumo.dlr.de/xsd/netconvertConfiguration.xsd">

    <output>
        <output-file value="/home/levidaily/linux/Repositories/sumo/tests/quickstart/bike-lanes.net.xml"/>
    </output>

    <processing>
        <offset.disable-normalization value="true"/>
    </processing>

    <junctions>
        <no-turnarounds value="true"/>
    </junctions>

    <netedit>
        <route-files value="/home/levidaily/linux/Repositories/sumo/tests/quickstart/bike-lanes.rou.xml"/>
    </netedit>

    <report>
        <aggregate-warnings value="5"/>
    </report>

</configuration>
-->

<net version="1.9" junctionCornerDetail="5" limitTurnSpeed="5.50" xmlns:xsi="http://www.w3.org/2001/XMLSchema-instance" xsi:noNamespaceSchemaLocation="http://sumo.dlr.de/xsd/net_file.xsd">

    <location netOffset="0.00,0.00" convBoundary="0.00,0.00,150.00,0.00" origBoundary="10000000000.00,10000000000.00,-10000000000.00,-10000000000.00" projParameter="!"/>

    <edge id=":J3_0" function="internal">
        <lane id=":J3_0_0" index="0" allow="bicycle" speed="13.89" length="4.39" shape="51.50,4.80 48.50,1.60"/>
    </edge>
    <edge id=":J3_1" function="internal">
        <lane id=":J3_1_0" index="0" allow="bicycle" speed="13.89" length="3.69" shape="48.50,-1.60 51.50,-4.80"/>
        <lane id=":J3_1_1" index="1" speed="13.89" length="3.69" shape="48.50,-1.60 51.50,-1.60"/>
    </edge>
    <edge id=":J4_0" function="internal">
        <lane id=":J4_0_0" index="0" allow="bicycle" speed="13.89" length="8.40" shape="96.00,-4.80 104.00,-4.80"/>
        <lane id=":J4_0_1" index="1" allow="bicycle" speed="13.89" length="8.40" shape="96.00,-4.80 98.46,-4.30 100.00,-3.20 101.54,-2.10 104.00,-1.60"/>
        <lane id=":J4_0_2" index="2" speed="13.89" length="8.40" shape="96.00,-1.60 98.46,-2.10 100.00,-3.20 101.54,-4.30 104.00,-4.80"/>
        <lane id=":J4_0_3" index="3" speed="13.89" length="8.40" shape="96.00,-1.60 104.00,-1.60"/>
    </edge>

    <edge id="-E2" from="J3" to="J0" priority="-1">
        <lane id="-E2_0" index="0" speed="13.89" length="48.50" shape="48.50,1.60 0.00,1.60"/>
    </edge>
    <edge id="-E3" from="J4" to="J3" priority="-1">
        <lane id="-E3_0" index="0" allow="bicycle" speed="13.89" length="44.50" shape="96.00,4.80 51.50,4.80"/>
        <lane id="-E3_1" index="1" speed="13.89" length="44.50" shape="96.00,1.60 51.50,1.60"/>
    </edge>
    <edge id="-E4" from="J5" to="J4" priority="-1">
        <lane id="-E4_0" index="0" speed="13.89" length="46.00" shape="150.00,1.60 104.00,1.60"/>
    </edge>
    <edge id="E2" from="J0" to="J3" priority="-1">
        <lane id="E2_0" index="0" speed="13.89" length="48.50" shape="0.00,-1.60 48.50,-1.60"/>
    </edge>
    <edge id="E3" from="J3" to="J4" priority="-1">
        <lane id="E3_0" index="0" allow="bicycle" speed="13.89" length="44.50" shape="51.50,-4.80 96.00,-4.80"/>
        <lane id="E3_1" index="1" speed="13.89" length="44.50" shape="51.50,-1.60 96.00,-1.60"/>
    </edge>
    <edge id="E4" from="J4" to="J5" priority="-1">
        <lane id="E4_0" index="0" speed="13.89" length="46.00" shape="104.00,-4.80 150.00,-4.80"/>
        <lane id="E4_1" index="1" speed="13.89" length="46.00" shape="104.00,-1.60 150.00,-1.60"/>
    </edge>

    <junction id="J0" type="dead_end" x="0.00" y="0.00" incLanes="-E2_0" intLanes="" shape="0.00,0.00 0.00,3.20 0.00,0.00"/>
    <junction id="J3" type="priority" x="50.00" y="0.00" incLanes="-E3_0 -E3_1 E2_0" intLanes=":J3_0_0 :J3_1_0 :J3_1_1" shape="51.50,6.40 51.50,-6.40 48.50,-3.20 48.50,3.20">
        <request index="0" response="000" foes="000" cont="0"/>
        <request index="1" response="000" foes="000" cont="0"/>
        <request index="2" response="000" foes="000" cont="0"/>
    </junction>
    <junction id="J4" type="priority" x="100.00" y="0.00" incLanes="-E4_0 E3_0 E3_1" intLanes=":J4_0_0 :J4_0_1 :J4_0_2 :J4_0_3" shape="104.00,3.20 104.00,-6.40 96.00,-6.40 96.00,6.40 99.03,5.57 100.97,4.03 102.21,3.44">
        <request index="0" response="0100" foes="0100" cont="0"/>
        <request index="1" response="1000" foes="1000" cont="0"/>
        <request index="2" response="0000" foes="0001" cont="0"/>
        <request index="3" response="0000" foes="0010" cont="0"/>
    </junction>
    <junction id="J5" type="dead_end" x="150.00" y="0.00" incLanes="E4_0 E4_1" intLanes="" shape="150.00,0.00 150.00,-6.40 150.00,0.00"/>

    <connection from="-E3" to="-E2" fromLane="0" toLane="0" via=":J3_0_0" dir="s" state="M"/>
    <connection from="E2" to="E3" fromLane="0" toLane="0" via=":J3_1_0" dir="s" state="M"/>
    <connection from="E2" to="E3" fromLane="0" toLane="1" via=":J3_1_1" dir="s" state="M"/>
    <connection from="E3" to="E4" fromLane="0" toLane="0" via=":J4_0_0" dir="s" state="m"/>
    <connection from="E3" to="E4" fromLane="0" toLane="1" via=":J4_0_1" dir="s" state="m"/>
    <connection from="E3" to="E4" fromLane="1" toLane="0" keepClear="0" via=":J4_0_2" dir="s" state="M"/>
    <connection from="E3" to="E4" fromLane="1" toLane="1" keepClear="0" via=":J4_0_3" dir="s" state="M"/>

    <connection from=":J3_0" to="-E2" fromLane="0" toLane="0" dir="s" state="M"/>
    <connection from=":J3_1" to="E3" fromLane="0" toLane="0" dir="s" state="M"/>
    <connection from=":J3_1" to="E3" fromLane="1" toLane="1" dir="s" state="M"/>
    <connection from=":J4_0" to="E4" fromLane="0" toLane="0" dir="s" state="M"/>
    <connection from=":J4_0" to="E4" fromLane="1" toLane="1" dir="s" state="M"/>
    <connection from=":J4_0" to="E4" fromLane="2" toLane="0" dir="s" state="M"/>
    <connection from=":J4_0" to="E4" fromLane="3" toLane="1" dir="s" state="M"/>

</net>
