<?xml version="1.0" encoding="UTF-8"?>

<!-- generated on 2021-11-26 08:24:48 by Eclipse SUMO netedit Version v1_10_0+1831-77099b212b6
<configuration xmlns:xsi="http://www.w3.org/2001/XMLSchema-instance" xsi:noNamespaceSchemaLocation="http://sumo.dlr.de/xsd/netconvertConfiguration.xsd">

    <output>
        <output-file value="/home/levidaily/linux/Repositories/sumo/tests/quickstart/straight-line.net.xml"/>
    </output>

    <processing>
        <offset.disable-normalization value="true"/>
    </processing>

    <junctions>
        <no-turnarounds value="true"/>
    </junctions>

    <netedit>
        <route-files value="/home/levidaily/linux/Repositories/sumo/tests/quickstart/straight-line.rou.xml"/>
        <data-files value="/home/levidaily/linux/Repositories/sumo/tests/quickstart/straight-line.rou.xml"/>
    </netedit>

    <report>
        <aggregate-warnings value="5"/>
    </report>

</configuration>
-->

<net version="1.9" junctionCornerDetail="5" limitTurnSpeed="5.50" xmlns:xsi="http://www.w3.org/2001/XMLSchema-instance" xsi:noNamespaceSchemaLocation="http://sumo.dlr.de/xsd/net_file.xsd">

    <location netOffset="0.00,0.00" convBoundary="0.00,0.00,223.00,0.00" origBoundary="10000000000.00,10000000000.00,-10000000000.00,-10000000000.00" projParameter="!"/>

    <edge id=":J1_0" function="internal">
        <lane id=":J1_0_0" index="0" speed="13.89" length="8.00" shape="196.00,-1.60 204.00,-1.60"/>
    </edge>

    <edge id="E0" from="J0" to="J1" priority="-1">
        <lane id="E0_0" index="0" speed="13.89" length="196.00" shape="0.00,-4.80 196.00,-4.80"/>
        <lane id="E0_1" index="1" speed="13.89" length="196.00" shape="0.00,-1.60 196.00,-1.60"/>
    </edge>
    <edge id="E1" from="J1" to="J2" priority="-1">
        <lane id="E1_0" index="0" speed="13.89" length="19.00" shape="204.00,-1.60 223.00,-1.60"/>
    </edge>

    <junction id="J0" type="dead_end" x="0.00" y="0.00" incLanes="" intLanes="" shape="0.00,0.00 0.00,-6.40"/>
    <junction id="J1" type="priority" x="200.00" y="0.00" incLanes="E0_0 E0_1" intLanes=":J1_0_0" shape="204.00,0.00 204.00,-3.20 200.97,-4.03 199.03,-5.57 197.79,-6.16 196.00,-6.40 196.00,0.00">
        <request index="0" response="0" foes="0" cont="0"/>
    </junction>
    <junction id="J2" type="dead_end" x="223.00" y="0.00" incLanes="E1_0" intLanes="" shape="223.00,-3.20 223.00,0.00"/>

    <connection from="E0" to="E1" fromLane="1" toLane="0" via=":J1_0_0" dir="s" state="M"/>

    <connection from=":J1_0" to="E1" fromLane="0" toLane="0" dir="s" state="M"/>

</net>
