<?xml version="1.0" encoding="UTF-8"?>

<!-- generated on 2021-11-29 09:14:01 by Eclipse SUMO netedit Version v1_10_0+1831-77099b212b6
-->

<routes xmlns:xsi="http://www.w3.org/2001/XMLSchema-instance" xsi:noNamespaceSchemaLocation="http://sumo.dlr.de/xsd/routes_file.xsd">
    <trip id="vehicle_0" type="DEFAULT_BIKETYPE" color="red" depart="0.00" from="E0" to="E2"/>
    <trip id="vehicle_1" type="DEFAULT_BIKETYPE" depart="0.01" from="E0" to="E3"/>
    <trip id="vehicle_2" type="DEFAULT_BIKETYPE" depart="0.01" from="E0" to="E3"/>
    <trip id="vehicle_3" type="DEFAULT_BIKETYPE" depart="0.01" from="E0" to="E3"/>
    <trip id="vehicle_4" type="DEFAULT_BIKETYPE" depart="0.01" from="E0" to="E3"/>
    <trip id="vehicle_5" type="DEFAULT_BIKETYPE" depart="0.01" from="E0" to="E3"/>
    <trip id="vehicle_6" type="DEFAULT_BIKETYPE" depart="0.01" from="E0" to="E3"/>
    <trip id="vehicle_7" type="DEFAULT_BIKETYPE" depart="0.01" from="E0" to="E3"/>
    <trip id="vehicle_8" type="DEFAULT_BIKETYPE" depart="0.01" from="E0" to="E3"/>
    <trip id="vehicle_9" type="DEFAULT_BIKETYPE" depart="0.01" from="E0" to="E3"/>
    <trip id="vehicle_10" type="DEFAULT_BIKETYPE" depart="0.01" from="E0" to="E3"/>
    <trip id="vehicle_11" type="DEFAULT_BIKETYPE" depart="0.01" from="E0" to="E3"/>
    <trip id="vehicle_12" type="DEFAULT_BIKETYPE" depart="0.01" from="E0" to="E3"/>
    <trip id="vehicle_13" type="DEFAULT_BIKETYPE" depart="0.01" from="E0" to="E3"/>
    <trip id="vehicle_14" depart="0.01" from="E0" to="E3"/>
    <trip id="vehicle_15" type="DEFAULT_BIKETYPE" depart="0.01" from="E0" to="E3"/>
    <trip id="vehicle_16" type="DEFAULT_BIKETYPE" depart="0.01" from="E0" to="E3"/>
    <trip id="vehicle_17" type="DEFAULT_BIKETYPE" depart="0.01" from="E0" to="E3"/>
    <trip id="vehicle_18" type="DEFAULT_BIKETYPE" depart="0.01" from="E0" to="E3"/>
    <trip id="vehicle_19" type="DEFAULT_BIKETYPE" depart="0.01" from="E0" to="E3"/>
    <trip id="vehicle_20" type="DEFAULT_BIKETYPE" depart="0.01" from="E0" to="E3"/>
    <trip id="vehicle_21" type="DEFAULT_BIKETYPE" depart="0.01" from="E0" to="E3"/>
    <trip id="vehicle_22" type="DEFAULT_BIKETYPE" depart="0.01" from="E0" to="E3"/>
    <trip id="vehicle_23" type="DEFAULT_BIKETYPE" depart="0.01" from="E0" to="E3"/>
    <trip id="vehicle_24" type="DEFAULT_BIKETYPE" depart="0.01" from="E0" to="E3"/>
    <trip id="vehicle_25" type="DEFAULT_BIKETYPE" depart="0.01" from="E0" to="E3"/>
    <trip id="vehicle_26" type="DEFAULT_BIKETYPE" depart="0.01" from="E0" to="E3"/>
    <trip id="vehicle_27" type="DEFAULT_BIKETYPE" depart="0.01" from="E0" to="E3"/>
    <trip id="vehicle_28" type="DEFAULT_BIKETYPE" depart="0.01" from="E0" to="E3"/>
    <trip id="vehicle_29" type="DEFAULT_BIKETYPE" depart="0.01" from="E0" to="E3"/>
    <trip id="vehicle_30" type="DEFAULT_BIKETYPE" depart="0.01" from="E0" to="E3"/>
    <trip id="vehicle_31" type="DEFAULT_BIKETYPE" depart="0.01" from="E0" to="E3"/>
    <trip id="vehicle_32" type="DEFAULT_BIKETYPE" depart="0.01" from="E0" to="E3"/>
    <trip id="vehicle_33" type="DEFAULT_BIKETYPE" depart="0.01" from="E0" to="E3"/>
    <trip id="vehicle_34" type="DEFAULT_BIKETYPE" depart="0.01" from="E0" to="E3"/>
    <trip id="vehicle_35" type="DEFAULT_BIKETYPE" depart="0.01" from="E0" to="E3"/>
    <trip id="vehicle_36" type="DEFAULT_BIKETYPE" depart="0.01" from="E0" to="E3"/>
    <trip id="vehicle_37" type="DEFAULT_BIKETYPE" depart="0.01" from="E0" to="E3"/>
    <trip id="vehicle_38" type="DEFAULT_BIKETYPE" depart="0.01" from="E0" to="E3"/>
    <trip id="vehicle_39" type="DEFAULT_BIKETYPE" depart="0.01" from="E0" to="E3"/>

    <trip id="vehicle_40" type="DEFAULT_BIKETYPE" depart="0.00" from="E1" to="-E0"/>
    <trip id="vehicle_41" type="DEFAULT_BIKETYPE" depart="0.00" from="E1" to="-E0"/>
    <trip id="vehicle_42" type="DEFAULT_BIKETYPE" depart="0.00" from="E1" to="-E0"/>
    <trip id="vehicle_43" type="DEFAULT_BIKETYPE" depart="0.00" from="E1" to="-E0"/>
    <trip id="vehicle_44" type="DEFAULT_BIKETYPE" depart="0.00" from="E1" to="-E0"/>
    <trip id="vehicle_45" type="DEFAULT_BIKETYPE" depart="0.00" from="E1" to="-E0"/>
    <trip id="vehicle_46" type="DEFAULT_BIKETYPE" depart="0.00" from="E1" to="-E0"/>
    <trip id="vehicle_47" type="DEFAULT_BIKETYPE" depart="0.00" from="E1" to="-E0"/>
    <trip id="vehicle_48" type="DEFAULT_BIKETYPE" depart="0.00" from="E1" to="-E0"/>
    <trip id="vehicle_49" type="DEFAULT_BIKETYPE" depart="0.00" from="E1" to="-E0"/>
    <trip id="vehicle_50" type="DEFAULT_BIKETYPE" depart="0.00" from="E1" to="-E0"/>
    <trip id="vehicle_51" type="DEFAULT_BIKETYPE" depart="0.00" from="E1" to="-E0"/>
    <trip id="vehicle_52" type="DEFAULT_BIKETYPE" depart="0.00" from="E1" to="-E0"/>
    <trip id="vehicle_53" type="DEFAULT_BIKETYPE" depart="0.00" from="E1" to="-E0"/>
    <trip id="vehicle_54" type="DEFAULT_BIKETYPE" depart="0.00" from="E1" to="-E0"/>
    <trip id="vehicle_55" type="DEFAULT_BIKETYPE" depart="0.00" from="E1" to="-E0"/>
    <trip id="vehicle_56" type="DEFAULT_BIKETYPE" depart="0.00" from="E1" to="-E0"/>
    <trip id="vehicle_57" type="DEFAULT_BIKETYPE" depart="0.00" from="E1" to="-E0"/>
    <trip id="vehicle_58" type="DEFAULT_BIKETYPE" depart="0.00" from="E1" to="-E0"/>
    <trip id="vehicle_59" type="DEFAULT_BIKETYPE" depart="0.00" from="E1" to="-E0"/>
    <trip id="vehicle_60" type="DEFAULT_BIKETYPE" depart="0.00" from="E1" to="-E0"/>
    <trip id="vehicle_61" type="DEFAULT_BIKETYPE" depart="0.00" from="E1" to="-E0"/>
    <trip id="vehicle_62" type="DEFAULT_BIKETYPE" depart="0.00" from="E1" to="-E0"/>
    <trip id="vehicle_63" type="DEFAULT_BIKETYPE" depart="0.00" from="E1" to="-E0"/>
    <trip id="vehicle_64" type="DEFAULT_BIKETYPE" depart="0.00" from="E1" to="-E0"/>
    <trip id="vehicle_65" type="DEFAULT_BIKETYPE" depart="0.00" from="E1" to="-E0"/>
    <trip id="vehicle_66" type="DEFAULT_BIKETYPE" depart="0.00" from="E1" to="-E0"/>
    <trip id="vehicle_67" type="DEFAULT_BIKETYPE" depart="0.00" from="E1" to="-E0"/>
    <trip id="vehicle_68" type="DEFAULT_BIKETYPE" depart="0.00" from="E1" to="-E0"/>
    <trip id="vehicle_69" type="DEFAULT_BIKETYPE" depart="0.00" from="E1" to="-E0"/>
    <trip id="vehicle_70" type="DEFAULT_BIKETYPE" depart="0.00" from="E1" to="-E0"/>
    <trip id="vehicle_71" type="DEFAULT_BIKETYPE" depart="0.00" from="E1" to="-E0"/>
    <trip id="vehicle_72" type="DEFAULT_BIKETYPE" depart="0.00" from="E1" to="-E0"/>
    <trip id="vehicle_73" type="DEFAULT_BIKETYPE" depart="0.00" from="E1" to="-E0"/>
    <trip id="vehicle_74" type="DEFAULT_BIKETYPE" depart="0.00" from="E1" to="-E0"/>
    <trip id="vehicle_75" type="DEFAULT_BIKETYPE" depart="0.00" from="E1" to="-E0"/>
    <trip id="vehicle_76" type="DEFAULT_BIKETYPE" depart="0.00" from="E1" to="-E0"/>
    <trip id="vehicle_77" type="DEFAULT_BIKETYPE" depart="0.00" from="E1" to="-E0"/>
    <trip id="vehicle_78" type="DEFAULT_BIKETYPE" depart="0.00" from="E1" to="-E0"/>
    <trip id="vehicle_79" type="DEFAULT_BIKETYPE" depart="0.00" from="E1" to="-E0"/>
</routes>
