<?xml version="1.0" encoding="UTF-8"?>

<!-- generated on 2021-11-29 16:33:38 by Eclipse SUMO netedit Version v1_10_0+1831-77099b212b6
<configuration xmlns:xsi="http://www.w3.org/2001/XMLSchema-instance" xsi:noNamespaceSchemaLocation="http://sumo.dlr.de/xsd/netconvertConfiguration.xsd">

    <input>
        <sumo-net-file value="/home/levidaily/linux/Repositories/scenarios/intro-scenario.net.xml"/>
    </input>

    <output>
        <output-file value="/home/levidaily/linux/Repositories/scenarios/intro-scenario.net.xml"/>
    </output>

    <processing>
        <geometry.min-radius.fix.railways value="false"/>
        <geometry.max-grade.fix value="false"/>
        <offset.disable-normalization value="true"/>
        <lefthand value="false"/>
    </processing>

    <junctions>
        <no-turnarounds value="true"/>
        <junctions.corner-detail value="5"/>
        <junctions.limit-turn-speed value="5.5"/>
        <rectangular-lane-cut value="false"/>
    </junctions>

    <pedestrian>
        <walkingareas value="false"/>
    </pedestrian>

    <netedit>
        <route-files value="/home/levidaily/linux/Repositories/scenarios/intro-scenario.rou.xml"/>
    </netedit>

    <report>
        <aggregate-warnings value="5"/>
    </report>

</configuration>
-->

<net version="1.9" junctionCornerDetail="5" limitTurnSpeed="5.50" xmlns:xsi="http://www.w3.org/2001/XMLSchema-instance" xsi:noNamespaceSchemaLocation="http://sumo.dlr.de/xsd/net_file.xsd">

    <location netOffset="0.00,0.00" convBoundary="-50.00,0.00,50.00,100.00" origBoundary="-10000000000.00,-10000000000.00,10000000000.00,10000000000.00" projParameter="!"/>

    <edge id=":J5_0" function="internal">
        <lane id=":J5_0_0" index="0" speed="6.92" length="9.77" shape="-12.50,13.60 -12.91,11.15 -14.12,9.40 -16.16,8.35 -19.00,8.00"/>
        <lane id=":J5_0_1" index="1" speed="8.71" length="16.43" shape="-7.50,13.60 -8.22,9.75 -10.38,7.00 -13.97,5.35 -19.00,4.80"/>
    </edge>
    <edge id=":J5_2" function="internal">
        <lane id=":J5_2_0" index="0" speed="11.93" length="32.21" shape="-2.50,13.60 -1.16,5.55 2.88,-0.20 9.59,-3.65 19.00,-4.80"/>
        <lane id=":J5_2_1" index="1" speed="11.49" length="29.77" shape="-2.50,13.60 -1.16,6.95 2.88,2.20 9.59,-0.65 19.00,-1.60"/>
    </edge>
    <edge id=":J5_4" function="internal">
        <lane id=":J5_4_0" index="0" speed="8.26" length="15.18" width="5.00" shape="19.00,1.60 16.16,2.35 14.12,4.60 12.91,8.35 12.50,13.60"/>
    </edge>
    <edge id=":J5_5" function="internal">
        <lane id=":J5_5_0" index="0" speed="13.89" length="38.07" shape="19.00,1.60 -19.00,4.80"/>
        <lane id=":J5_5_1" index="1" speed="13.89" length="38.07" shape="19.00,1.60 -19.00,1.60"/>
    </edge>
    <edge id=":J5_7" function="internal">
        <lane id=":J5_7_0" index="0" speed="13.89" length="38.60" shape="-19.00,-1.60 -13.06,-2.60 -3.75,-4.80 7.44,-7.00 19.00,-8.00"/>
    </edge>
    <edge id=":J5_8" function="internal">
        <lane id=":J5_8_0" index="0" speed="12.16" length="34.12" width="5.00" shape="-19.00,-1.60 -7.41,-0.65 0.87,2.20 5.84,6.95 7.50,13.60"/>
        <lane id=":J5_8_1" index="1" speed="11.38" length="29.77" width="5.00" shape="-19.00,-1.60 -9.59,-0.65 -2.88,2.20 1.16,6.95 2.50,13.60"/>
    </edge>
    <edge id=":J6_0" function="internal">
        <lane id=":J6_0_0" index="0" speed="7.13" length="10.48" width="5.00" shape="-12.50,59.01 -12.91,56.17 -14.13,54.13 -16.16,52.92 -19.00,52.51"/>
    </edge>
    <edge id=":J6_1" function="internal">
        <lane id=":J6_1_0" index="0" speed="13.89" length="18.01" width="5.00" shape="-12.50,59.01 -12.50,41.00"/>
        <lane id=":J6_1_1" index="1" speed="13.89" length="18.01" width="5.00" shape="-7.50,59.01 -7.50,41.00"/>
        <lane id=":J6_1_2" index="2" speed="13.89" length="18.01" width="5.00" shape="-2.50,59.01 -2.50,41.00"/>
    </edge>
    <edge id=":J6_4" function="internal">
        <lane id=":J6_4_0" index="0" speed="10.99" length="6.76" width="5.00" shape="-2.50,59.01 -1.16,53.97 0.00,52.94"/>
    </edge>
    <edge id=":J6_10" function="internal">
        <lane id=":J6_10_0" index="0" speed="10.99" length="20.34" width="5.00" shape="0.00,52.94 2.88,50.38 9.59,48.22 19.00,47.50"/>
    </edge>
    <edge id=":J6_5" function="internal">
        <lane id=":J6_5_0" index="0" speed="7.14" length="10.48" width="5.00" shape="12.50,41.00 12.91,43.84 14.12,45.88 16.16,47.09 19.00,47.50"/>
    </edge>
    <edge id=":J6_6" function="internal">
        <lane id=":J6_6_0" index="0" speed="13.89" length="18.01" width="5.00" shape="12.50,41.00 12.50,59.01"/>
        <lane id=":J6_6_1" index="1" speed="13.89" length="18.01" width="5.00" shape="7.50,41.00 7.50,59.01"/>
        <lane id=":J6_6_2" index="2" speed="13.89" length="18.01" width="5.00" shape="2.50,41.00 2.50,59.01"/>
    </edge>
    <edge id=":J6_9" function="internal">
        <lane id=":J6_9_0" index="0" speed="10.99" length="6.76" width="5.00" shape="2.50,41.00 1.16,46.03 -0.00,47.06"/>
    </edge>
    <edge id=":J6_11" function="internal">
        <lane id=":J6_11_0" index="0" speed="10.99" length="20.35" width="5.00" shape="-0.00,47.06 -2.88,49.63 -9.59,51.79 -19.00,52.51"/>
    </edge>

    <edge id="-E1" from="J1" to="J6" priority="-1">
        <lane id="-E1_0" index="0" speed="13.89" length="40.99" width="5.00" shape="-12.50,100.00 -12.50,59.01"/>
        <lane id="-E1_1" index="1" speed="13.89" length="40.99" width="5.00" shape="-7.50,100.00 -7.50,59.01"/>
        <lane id="-E1_2" index="2" speed="13.89" length="40.99" width="5.00" shape="-2.50,100.00 -2.50,59.01"/>
    </edge>
    <edge id="-E4" from="J6" to="J5" priority="-1">
        <lane id="-E4_0" index="0" speed="13.89" length="27.40" width="5.00" shape="-12.50,41.00 -12.50,13.60"/>
        <lane id="-E4_1" index="1" speed="13.89" length="27.40" width="5.00" shape="-7.50,41.00 -7.50,13.60"/>
        <lane id="-E4_2" index="2" speed="13.89" length="27.40" width="5.00" shape="-2.50,41.00 -2.50,13.60"/>
    </edge>
    <edge id="-E6" from="J8" to="J5" priority="-1">
        <lane id="-E6_0" index="0" speed="13.89" length="31.00" shape="-50.00,-1.60 -19.00,-1.60"/>
    </edge>
    <edge id="-E7" from="J5" to="J7" priority="-1">
        <lane id="-E7_0" index="0" speed="13.89" length="31.00" shape="19.00,-8.00 50.00,-8.00"/>
        <lane id="-E7_1" index="1" speed="13.89" length="31.00" shape="19.00,-4.80 50.00,-4.80"/>
        <lane id="-E7_2" index="2" speed="13.89" length="31.00" shape="19.00,-1.60 50.00,-1.60"/>
    </edge>
    <edge id="E0" from="J6" to="J0" priority="-1">
        <lane id="E0_0" index="0" speed="13.89" length="31.00" width="5.00" shape="19.00,47.50 50.00,47.50"/>
    </edge>
    <edge id="E1" from="J6" to="J1" priority="-1">
        <lane id="E1_0" index="0" speed="13.89" length="40.99" width="5.00" shape="12.50,59.01 12.50,100.00"/>
        <lane id="E1_1" index="1" speed="13.89" length="40.99" width="5.00" shape="7.50,59.01 7.50,100.00"/>
        <lane id="E1_2" index="2" speed="13.89" length="40.99" width="5.00" shape="2.50,59.01 2.50,100.00"/>
    </edge>
    <edge id="E2" from="J6" to="J2" priority="-1">
        <lane id="E2_0" index="0" speed="13.89" length="10.65" width="5.00" shape="-19.00,52.51 -29.65,52.52"/>
    </edge>
    <edge id="E4" from="J5" to="J6" priority="-1">
        <lane id="E4_0" index="0" speed="13.89" length="27.40" width="5.00" shape="12.50,13.60 12.50,41.00"/>
        <lane id="E4_1" index="1" speed="13.89" length="27.40" width="5.00" shape="7.50,13.60 7.50,41.00"/>
        <lane id="E4_2" index="2" speed="13.89" length="27.40" width="5.00" shape="2.50,13.60 2.50,41.00"/>
    </edge>
    <edge id="E6" from="J5" to="J8" priority="-1">
        <lane id="E6_0" index="0" speed="13.89" length="31.00" shape="-19.00,8.00 -50.00,8.00"/>
        <lane id="E6_1" index="1" speed="13.89" length="31.00" shape="-19.00,4.80 -50.00,4.80"/>
        <lane id="E6_2" index="2" speed="13.89" length="31.00" shape="-19.00,1.60 -50.00,1.60"/>
    </edge>
    <edge id="E7" from="J7" to="J5" priority="-1">
        <lane id="E7_0" index="0" speed="13.89" length="31.00" shape="50.00,1.60 19.00,1.60"/>
    </edge>

    <tlLogic id="J6" type="static" programID="0" offset="0">
        <phase duration="50" state="rrrrrrrrrr"/>
        <phase duration="3"  state="yyyyyyyyyy"/>
        <phase duration="10" state="GGGGgGGGGg"/>
    </tlLogic>

    <junction id="J0" type="dead_end" x="50.00" y="50.00" incLanes="E0_0" intLanes="" shape="50.00,45.00 50.00,50.00"/>
    <junction id="J1" type="dead_end" x="0.00" y="100.00" incLanes="E1_0 E1_1 E1_2" intLanes="" shape="0.00,100.00 15.00,100.00 0.00,100.00"/>
    <junction id="J2" type="dead_end" x="-29.65" y="50.02" incLanes="E2_0" intLanes="" shape="-29.65,55.02 -29.65,50.02"/>
    <junction id="J5" type="priority" x="0.00" y="0.00" incLanes="-E4_0 -E4_1 -E4_2 E7_0 -E6_0" intLanes=":J5_0_0 :J5_0_1 :J5_2_0 :J5_2_1 :J5_4_0 :J5_5_0 :J5_5_1 :J5_7_0 :J5_8_0 :J5_8_1" shape="-15.00,13.60 15.00,13.60 15.11,10.42 15.44,7.82 16.00,5.80 16.78,4.36 17.78,3.49 19.00,3.20 19.00,-9.60 10.83,-9.13 4.87,-7.94 -4.87,-4.86 -10.83,-3.67 -19.00,-3.20 -19.00,9.60 -16.78,10.04 -16.00,10.60 -15.44,11.38 -15.11,12.38">
        <request index="0" response="0000000000" foes="0001100000" cont="0"/>
        <request index="1" response="0000000000" foes="0001100000" cont="0"/>
        <request index="2" response="0000000000" foes="1101100000" cont="0"/>
        <request index="3" response="0000000000" foes="1101100000" cont="0"/>
        <request index="4" response="0000000000" foes="0000000000" cont="0"/>
        <request index="5" response="0000001111" foes="1100001111" cont="0"/>
        <request index="6" response="0000001111" foes="1100001111" cont="0"/>
        <request index="7" response="0000000000" foes="0000000000" cont="0"/>
        <request index="8" response="0001101100" foes="0001101100" cont="0"/>
        <request index="9" response="0001101100" foes="0001101100" cont="0"/>
    </junction>
    <junction id="J6" type="traffic_light" x="0.00" y="50.00" incLanes="-E1_0 -E1_1 -E1_2 E4_0 E4_1 E4_2" intLanes=":J6_0_0 :J6_1_0 :J6_1_1 :J6_1_2 :J6_10_0 :J6_5_0 :J6_6_0 :J6_6_1 :J6_6_2 :J6_11_0" shape="-15.00,59.01 15.00,59.01 15.11,56.26 15.44,54.00 16.00,52.25 16.78,51.00 17.78,50.25 19.00,50.00 19.00,45.00 16.78,44.56 16.00,44.00 15.44,43.22 15.11,42.22 15.00,41.00 -15.00,41.00 -15.11,43.75 -15.44,46.01 -16.00,47.76 -16.78,49.01 -17.78,49.76 -19.00,50.01 -19.00,55.01 -16.78,55.46 -16.00,56.01 -15.44,56.79 -15.11,57.79">
        <request index="0" response="0000000000" foes="1000000000" cont="0"/>
        <request index="1" response="0000000000" foes="1000000000" cont="0"/>
        <request index="2" response="0000000000" foes="1000000000" cont="0"/>
        <request index="3" response="0000000000" foes="1000000000" cont="0"/>
        <request index="4" response="0111100000" foes="0111100000" cont="1"/>
        <request index="5" response="0000000000" foes="0000010000" cont="0"/>
        <request index="6" response="0000000000" foes="0000010000" cont="0"/>
        <request index="7" response="0000000000" foes="0000010000" cont="0"/>
        <request index="8" response="0000000000" foes="0000010000" cont="0"/>
        <request index="9" response="0000001111" foes="0000001111" cont="1"/>
    </junction>
    <junction id="J7" type="dead_end" x="50.00" y="0.00" incLanes="-E7_0 -E7_1 -E7_2" intLanes="" shape="50.00,0.00 50.00,-9.60 50.00,0.00"/>
    <junction id="J8" type="dead_end" x="-50.00" y="0.00" incLanes="E6_0 E6_1 E6_2" intLanes="" shape="-50.00,0.00 -50.00,9.60 -50.00,0.00"/>

    <junction id=":J6_10_0" type="internal" x="0.00" y="52.94" incLanes=":J6_4_0 E4_0 E4_1 E4_2" intLanes=":J6_5_0 :J6_6_0 :J6_6_1 :J6_6_2"/>
    <junction id=":J6_11_0" type="internal" x="-0.00" y="47.06" incLanes=":J6_9_0 -E1_0 -E1_1 -E1_2" intLanes=":J6_0_0 :J6_1_0 :J6_1_1 :J6_1_2"/>

    <connection from="-E1" to="E2" fromLane="0" toLane="0" via=":J6_0_0" tl="J6" linkIndex="0" dir="r" state="O"/>
    <connection from="-E1" to="-E4" fromLane="0" toLane="0" via=":J6_1_0" tl="J6" linkIndex="1" dir="s" state="O"/>
    <connection from="-E1" to="-E4" fromLane="1" toLane="1" via=":J6_1_1" tl="J6" linkIndex="2" dir="s" state="O"/>
    <connection from="-E1" to="-E4" fromLane="2" toLane="2" via=":J6_1_2" tl="J6" linkIndex="3" dir="s" state="O"/>
    <connection from="-E1" to="E0" fromLane="2" toLane="0" via=":J6_4_0" tl="J6" linkIndex="4" dir="l" state="o"/>
    <connection from="-E4" to="E6" fromLane="0" toLane="0" via=":J5_0_0" dir="r" state="M"/>
    <connection from="-E4" to="E6" fromLane="1" toLane="1" via=":J5_0_1" dir="r" state="M"/>
    <connection from="-E4" to="-E7" fromLane="2" toLane="1" via=":J5_2_0" dir="l" state="M"/>
    <connection from="-E4" to="-E7" fromLane="2" toLane="2" via=":J5_2_1" dir="l" state="M"/>
    <connection from="-E6" to="-E7" fromLane="0" toLane="0" via=":J5_7_0" dir="s" state="M"/>
    <connection from="-E6" to="E4" fromLane="0" toLane="1" via=":J5_8_0" dir="l" state="m"/>
    <connection from="-E6" to="E4" fromLane="0" toLane="2" via=":J5_8_1" dir="l" state="m"/>
    <connection from="E4" to="E0" fromLane="0" toLane="0" via=":J6_5_0" tl="J6" linkIndex="5" dir="r" state="O"/>
    <connection from="E4" to="E1" fromLane="0" toLane="0" via=":J6_6_0" tl="J6" linkIndex="6" dir="s" state="O"/>
    <connection from="E4" to="E1" fromLane="1" toLane="1" via=":J6_6_1" tl="J6" linkIndex="7" dir="s" state="O"/>
    <connection from="E4" to="E1" fromLane="2" toLane="2" via=":J6_6_2" tl="J6" linkIndex="8" dir="s" state="O"/>
    <connection from="E4" to="E2" fromLane="2" toLane="0" via=":J6_9_0" tl="J6" linkIndex="9" dir="l" state="o"/>
    <connection from="E7" to="E4" fromLane="0" toLane="0" via=":J5_4_0" dir="r" state="M"/>
    <connection from="E7" to="E6" fromLane="0" toLane="1" via=":J5_5_0" dir="s" state="m"/>
    <connection from="E7" to="E6" fromLane="0" toLane="2" via=":J5_5_1" dir="s" state="m"/>

    <connection from=":J5_0" to="E6" fromLane="0" toLane="0" dir="r" state="M"/>
    <connection from=":J5_0" to="E6" fromLane="1" toLane="1" dir="r" state="M"/>
    <connection from=":J5_2" to="-E7" fromLane="0" toLane="1" dir="l" state="M"/>
    <connection from=":J5_2" to="-E7" fromLane="1" toLane="2" dir="l" state="M"/>
    <connection from=":J5_4" to="E4" fromLane="0" toLane="0" dir="r" state="M"/>
    <connection from=":J5_5" to="E6" fromLane="0" toLane="1" dir="s" state="M"/>
    <connection from=":J5_5" to="E6" fromLane="1" toLane="2" dir="s" state="M"/>
    <connection from=":J5_7" to="-E7" fromLane="0" toLane="0" dir="s" state="M"/>
    <connection from=":J5_8" to="E4" fromLane="0" toLane="1" dir="l" state="M"/>
    <connection from=":J5_8" to="E4" fromLane="1" toLane="2" dir="l" state="M"/>
    <connection from=":J6_0" to="E2" fromLane="0" toLane="0" dir="r" state="M"/>
    <connection from=":J6_1" to="-E4" fromLane="0" toLane="0" dir="s" state="M"/>
    <connection from=":J6_1" to="-E4" fromLane="1" toLane="1" dir="s" state="M"/>
    <connection from=":J6_1" to="-E4" fromLane="2" toLane="2" dir="s" state="M"/>
    <connection from=":J6_4" to="E0" fromLane="0" toLane="0" via=":J6_10_0" dir="l" state="m"/>
    <connection from=":J6_10" to="E0" fromLane="0" toLane="0" dir="l" state="M"/>
    <connection from=":J6_5" to="E0" fromLane="0" toLane="0" dir="r" state="M"/>
    <connection from=":J6_6" to="E1" fromLane="0" toLane="0" dir="s" state="M"/>
    <connection from=":J6_6" to="E1" fromLane="1" toLane="1" dir="s" state="M"/>
    <connection from=":J6_6" to="E1" fromLane="2" toLane="2" dir="s" state="M"/>
    <connection from=":J6_9" to="E2" fromLane="0" toLane="0" via=":J6_11_0" dir="l" state="m"/>
    <connection from=":J6_11" to="E2" fromLane="0" toLane="0" dir="l" state="M"/>

</net>
